ONLY_power_board
*SPICE Netlist generated by Advanced Sim server on 24.04.20 08:42:55

*Schematic Netlist:

.SAVE 0


*Selected Circuit Analyses:
.TRAN 2E-8 5E-6 0 2E-8
.OP

.END
